<routes>
  <vType id="type1" length="5" accel="5" decel="10"/>
  <flow id="i1" departPos="random_free" from="nt1_nt2" to="nt2_np2" begin="0" end="1" departLane="0" departSpeed="0" number="6" type="type1"/>
  <flow id="i2" departPos="random_free" from="nt2_nt1" to="nt16_np17" begin="0" end="1" departLane="0" departSpeed="0" number="6" type="type1"/>
  <flow id="i3" departPos="random_free" from="nt1_nt2" to="nt23_np13" begin="0" end="1" departLane="1" departSpeed="0" number="6" type="type1"/>
  <flow id="i4" departPos="random_free" from="nt2_nt1" to="nt15_np8" begin="0" end="1" departLane="1" departSpeed="0" number="6" type="type1"/>
  <flow id="i5" departPos="random_free" from="nt2_nt3" to="nt20_np9" begin="0" end="1" departLane="0" departSpeed="0" number="6" type="type1"/>
  <flow id="i6" departPos="random_free" from="nt3_nt2" to="nt20_np9" begin="0" end="1" departLane="0" departSpeed="0" number="6" type="type1"/>
  <flow id="i7" departPos="random_free" from="nt2_nt3" to="nt3_np3" begin="0" end="1" departLane="1" departSpeed="0" number="6" type="type1"/>
  <flow id="i8" departPos="random_free" from="nt3_nt2" to="nt24_np12" begin="0" end="1" departLane="1" departSpeed="0" number="6" type="type1"/>
  <flow id="i9" departPos="random_free" from="nt3_nt4" to="nt23_np13" begin="0" end="1" departLane="0" departSpeed="0" number="6" type="type1"/>
  <flow id="i10" departPos="random_free" from="nt4_nt3" to="nt21_np16" begin="0" end="1" departLane="0" departSpeed="0" number="6" type="type1"/>
  <flow id="i11" departPos="random_free" from="nt3_nt4" to="nt4_np4" begin="0" end="1" departLane="1" departSpeed="0" number="6" type="type1"/>
  <flow id="i12" departPos="random_free" from="nt4_nt3" to="nt15_np8" begin="0" end="1" departLane="1" departSpeed="0" number="6" type="type1"/>
  <flow id="i13" departPos="random_free" from="nt4_nt5" to="nt2_np2" begin="0" end="1" departLane="0" departSpeed="0" number="6" type="type1"/>
  <flow id="i14" departPos="random_free" from="nt5_nt4" to="nt1_np1" begin="0" end="1" departLane="0" departSpeed="0" number="6" type="type1"/>
  <flow id="i15" departPos="random_free" from="nt4_nt5" to="nt5_np6" begin="0" end="1" departLane="1" departSpeed="0" number="6" type="type1"/>
  <flow id="i16" departPos="random_free" from="nt5_nt4" to="nt6_np19" begin="0" end="1" departLane="1" departSpeed="0" number="6" type="type1"/>
  <flow id="i17" departPos="random_free" from="nt6_nt7" to="nt3_np3" begin="0" end="1" departLane="0" departSpeed="0" number="6" type="type1"/>
  <flow id="i18" departPos="random_free" from="nt7_nt6" to="nt4_np4" begin="0" end="1" departLane="0" departSpeed="0" number="6" type="type1"/>
  <flow id="i19" departPos="random_free" from="nt6_nt7" to="nt22_np14" begin="0" end="1" departLane="1" departSpeed="0" number="6" type="type1"/>
  <flow id="i20" departPos="random_free" from="nt7_nt6" to="nt20_np9" begin="0" end="1" departLane="1" departSpeed="0" number="6" type="type1"/>
  <flow id="i21" departPos="random_free" from="nt7_nt8" to="nt25_np10" begin="0" end="1" departLane="0" departSpeed="0" number="6" type="type1"/>
  <flow id="i22" departPos="random_free" from="nt8_nt7" to="nt20_np9" begin="0" end="1" departLane="0" departSpeed="0" number="6" type="type1"/>
  <flow id="i23" departPos="random_free" from="nt7_nt8" to="nt10_np7" begin="0" end="1" departLane="1" departSpeed="0" number="6" type="type1"/>
  <flow id="i24" departPos="random_free" from="nt8_nt7" to="nt5_np6" begin="0" end="1" departLane="1" departSpeed="0" number="6" type="type1"/>
  <flow id="i25" departPos="random_free" from="nt8_nt9" to="nt22_np14" begin="0" end="1" departLane="0" departSpeed="0" number="6" type="type1"/>
  <flow id="i26" departPos="random_free" from="nt9_nt8" to="nt22_np14" begin="0" end="1" departLane="0" departSpeed="0" number="6" type="type1"/>
  <flow id="i27" departPos="random_free" from="nt8_nt9" to="nt24_np12" begin="0" end="1" departLane="1" departSpeed="0" number="6" type="type1"/>
  <flow id="i28" departPos="random_free" from="nt9_nt8" to="nt16_np17" begin="0" end="1" departLane="1" departSpeed="0" number="6" type="type1"/>
  <flow id="i29" departPos="random_free" from="nt9_nt10" to="nt4_np4" begin="0" end="1" departLane="0" departSpeed="0" number="6" type="type1"/>
  <flow id="i30" departPos="random_free" from="nt10_nt9" to="nt1_np20" begin="0" end="1" departLane="0" departSpeed="0" number="6" type="type1"/>
  <flow id="i31" departPos="random_free" from="nt9_nt10" to="nt4_np4" begin="0" end="1" departLane="1" departSpeed="0" number="6" type="type1"/>
  <flow id="i32" departPos="random_free" from="nt10_nt9" to="nt24_np12" begin="0" end="1" departLane="1" departSpeed="0" number="6" type="type1"/>
  <flow id="i33" departPos="random_free" from="nt11_nt12" to="nt5_np6" begin="0" end="1" departLane="0" departSpeed="0" number="6" type="type1"/>
  <flow id="i34" departPos="random_free" from="nt12_nt11" to="nt5_np5" begin="0" end="1" departLane="0" departSpeed="0" number="6" type="type1"/>
  <flow id="i35" departPos="random_free" from="nt11_nt12" to="nt25_np11" begin="0" end="1" departLane="1" departSpeed="0" number="6" type="type1"/>
  <flow id="i36" departPos="random_free" from="nt12_nt11" to="nt10_np7" begin="0" end="1" departLane="1" departSpeed="0" number="6" type="type1"/>
  <flow id="i37" departPos="random_free" from="nt12_nt13" to="nt25_np10" begin="0" end="1" departLane="0" departSpeed="0" number="6" type="type1"/>
  <flow id="i38" departPos="random_free" from="nt13_nt12" to="nt5_np6" begin="0" end="1" departLane="0" departSpeed="0" number="6" type="type1"/>
  <flow id="i39" departPos="random_free" from="nt12_nt13" to="nt25_np10" begin="0" end="1" departLane="1" departSpeed="0" number="6" type="type1"/>
  <flow id="i40" departPos="random_free" from="nt13_nt12" to="nt10_np7" begin="0" end="1" departLane="1" departSpeed="0" number="6" type="type1"/>
  <flow id="i41" departPos="random_free" from="nt13_nt14" to="nt2_np2" begin="0" end="1" departLane="0" departSpeed="0" number="6" type="type1"/>
  <flow id="i42" departPos="random_free" from="nt14_nt13" to="nt3_np3" begin="0" end="1" departLane="0" departSpeed="0" number="6" type="type1"/>
  <flow id="i43" departPos="random_free" from="nt13_nt14" to="nt21_np16" begin="0" end="1" departLane="1" departSpeed="0" number="6" type="type1"/>
  <flow id="i44" departPos="random_free" from="nt14_nt13" to="nt2_np2" begin="0" end="1" departLane="1" departSpeed="0" number="6" type="type1"/>
  <flow id="i45" departPos="random_free" from="nt14_nt15" to="nt21_np15" begin="0" end="1" departLane="0" departSpeed="0" number="6" type="type1"/>
  <flow id="i46" departPos="random_free" from="nt15_nt14" to="nt25_np10" begin="0" end="1" departLane="0" departSpeed="0" number="6" type="type1"/>
  <flow id="i47" departPos="random_free" from="nt14_nt15" to="nt2_np2" begin="0" end="1" departLane="1" departSpeed="0" number="6" type="type1"/>
  <flow id="i48" departPos="random_free" from="nt15_nt14" to="nt2_np2" begin="0" end="1" departLane="1" departSpeed="0" number="6" type="type1"/>
  <flow id="i49" departPos="random_free" from="nt16_nt17" to="nt25_np11" begin="0" end="1" departLane="0" departSpeed="0" number="6" type="type1"/>
  <flow id="i50" departPos="random_free" from="nt17_nt16" to="nt5_np6" begin="0" end="1" departLane="0" departSpeed="0" number="6" type="type1"/>
  <flow id="i51" departPos="random_free" from="nt16_nt17" to="nt1_np1" begin="0" end="1" departLane="1" departSpeed="0" number="6" type="type1"/>
  <flow id="i52" departPos="random_free" from="nt17_nt16" to="nt16_np17" begin="0" end="1" departLane="1" departSpeed="0" number="6" type="type1"/>
  <flow id="i53" departPos="random_free" from="nt17_nt18" to="nt16_np17" begin="0" end="1" departLane="0" departSpeed="0" number="6" type="type1"/>
  <flow id="i54" departPos="random_free" from="nt18_nt17" to="nt4_np4" begin="0" end="1" departLane="0" departSpeed="0" number="6" type="type1"/>
  <flow id="i55" departPos="random_free" from="nt17_nt18" to="nt20_np9" begin="0" end="1" departLane="1" departSpeed="0" number="6" type="type1"/>
  <flow id="i56" departPos="random_free" from="nt18_nt17" to="nt15_np8" begin="0" end="1" departLane="1" departSpeed="0" number="6" type="type1"/>
  <flow id="i57" departPos="random_free" from="nt18_nt19" to="nt1_np1" begin="0" end="1" departLane="0" departSpeed="0" number="6" type="type1"/>
  <flow id="i58" departPos="random_free" from="nt19_nt18" to="nt20_np9" begin="0" end="1" departLane="0" departSpeed="0" number="6" type="type1"/>
  <flow id="i59" departPos="random_free" from="nt18_nt19" to="nt2_np2" begin="0" end="1" departLane="1" departSpeed="0" number="6" type="type1"/>
  <flow id="i60" departPos="random_free" from="nt19_nt18" to="nt4_np4" begin="0" end="1" departLane="1" departSpeed="0" number="6" type="type1"/>
  <flow id="i61" departPos="random_free" from="nt19_nt20" to="nt10_np7" begin="0" end="1" departLane="0" departSpeed="0" number="6" type="type1"/>
  <flow id="i62" departPos="random_free" from="nt20_nt19" to="nt1_np20" begin="0" end="1" departLane="0" departSpeed="0" number="6" type="type1"/>
  <flow id="i63" departPos="random_free" from="nt19_nt20" to="nt21_np16" begin="0" end="1" departLane="1" departSpeed="0" number="6" type="type1"/>
  <flow id="i64" departPos="random_free" from="nt20_nt19" to="nt21_np15" begin="0" end="1" departLane="1" departSpeed="0" number="6" type="type1"/>
  <flow id="i65" departPos="random_free" from="nt21_nt22" to="nt2_np2" begin="0" end="1" departLane="0" departSpeed="0" number="6" type="type1"/>
  <flow id="i66" departPos="random_free" from="nt22_nt21" to="nt5_np6" begin="0" end="1" departLane="0" departSpeed="0" number="6" type="type1"/>
  <flow id="i67" departPos="random_free" from="nt21_nt22" to="nt2_np2" begin="0" end="1" departLane="1" departSpeed="0" number="6" type="type1"/>
  <flow id="i68" departPos="random_free" from="nt22_nt21" to="nt22_np14" begin="0" end="1" departLane="1" departSpeed="0" number="6" type="type1"/>
  <flow id="i69" departPos="random_free" from="nt22_nt23" to="nt4_np4" begin="0" end="1" departLane="0" departSpeed="0" number="6" type="type1"/>
  <flow id="i70" departPos="random_free" from="nt23_nt22" to="nt16_np17" begin="0" end="1" departLane="0" departSpeed="0" number="6" type="type1"/>
  <flow id="i71" departPos="random_free" from="nt22_nt23" to="nt22_np14" begin="0" end="1" departLane="1" departSpeed="0" number="6" type="type1"/>
  <flow id="i72" departPos="random_free" from="nt23_nt22" to="nt21_np15" begin="0" end="1" departLane="1" departSpeed="0" number="6" type="type1"/>
  <flow id="i73" departPos="random_free" from="nt23_nt24" to="nt15_np8" begin="0" end="1" departLane="0" departSpeed="0" number="6" type="type1"/>
  <flow id="i74" departPos="random_free" from="nt24_nt23" to="nt16_np17" begin="0" end="1" departLane="0" departSpeed="0" number="6" type="type1"/>
  <flow id="i75" departPos="random_free" from="nt23_nt24" to="nt25_np10" begin="0" end="1" departLane="1" departSpeed="0" number="6" type="type1"/>
  <flow id="i76" departPos="random_free" from="nt24_nt23" to="nt5_np6" begin="0" end="1" departLane="1" departSpeed="0" number="6" type="type1"/>
  <flow id="i77" departPos="random_free" from="nt24_nt25" to="nt24_np12" begin="0" end="1" departLane="0" departSpeed="0" number="6" type="type1"/>
  <flow id="i78" departPos="random_free" from="nt25_nt24" to="nt21_np16" begin="0" end="1" departLane="0" departSpeed="0" number="6" type="type1"/>
  <flow id="i79" departPos="random_free" from="nt24_nt25" to="nt24_np12" begin="0" end="1" departLane="1" departSpeed="0" number="6" type="type1"/>
  <flow id="i80" departPos="random_free" from="nt25_nt24" to="nt20_np9" begin="0" end="1" departLane="1" departSpeed="0" number="6" type="type1"/>
  <flow id="i81" departPos="random_free" from="nt1_nt6" to="nt4_np4" begin="0" end="1" departLane="0" departSpeed="0" number="6" type="type1"/>
  <flow id="i82" departPos="random_free" from="nt6_nt1" to="nt16_np17" begin="0" end="1" departLane="0" departSpeed="0" number="6" type="type1"/>
  <flow id="i83" departPos="random_free" from="nt6_nt11" to="nt25_np11" begin="0" end="1" departLane="0" departSpeed="0" number="6" type="type1"/>
  <flow id="i84" departPos="random_free" from="nt11_nt6" to="nt10_np7" begin="0" end="1" departLane="0" departSpeed="0" number="6" type="type1"/>
  <flow id="i85" departPos="random_free" from="nt11_nt16" to="nt25_np10" begin="0" end="1" departLane="0" departSpeed="0" number="6" type="type1"/>
  <flow id="i86" departPos="random_free" from="nt16_nt11" to="nt3_np3" begin="0" end="1" departLane="0" departSpeed="0" number="6" type="type1"/>
  <flow id="i87" departPos="random_free" from="nt16_nt21" to="nt21_np16" begin="0" end="1" departLane="0" departSpeed="0" number="6" type="type1"/>
  <flow id="i88" departPos="random_free" from="nt21_nt16" to="nt1_np1" begin="0" end="1" departLane="0" departSpeed="0" number="6" type="type1"/>
  <flow id="i89" departPos="random_free" from="nt2_nt7" to="nt1_np20" begin="0" end="1" departLane="0" departSpeed="0" number="6" type="type1"/>
  <flow id="i90" departPos="random_free" from="nt7_nt2" to="nt15_np8" begin="0" end="1" departLane="0" departSpeed="0" number="6" type="type1"/>
  <flow id="i91" departPos="random_free" from="nt7_nt12" to="nt25_np10" begin="0" end="1" departLane="0" departSpeed="0" number="6" type="type1"/>
  <flow id="i92" departPos="random_free" from="nt12_nt7" to="nt24_np12" begin="0" end="1" departLane="0" departSpeed="0" number="6" type="type1"/>
  <flow id="i93" departPos="random_free" from="nt12_nt17" to="nt3_np3" begin="0" end="1" departLane="0" departSpeed="0" number="6" type="type1"/>
  <flow id="i94" departPos="random_free" from="nt17_nt12" to="nt25_np10" begin="0" end="1" departLane="0" departSpeed="0" number="6" type="type1"/>
  <flow id="i95" departPos="random_free" from="nt17_nt22" to="nt20_np9" begin="0" end="1" departLane="0" departSpeed="0" number="6" type="type1"/>
  <flow id="i96" departPos="random_free" from="nt22_nt17" to="nt11_np18" begin="0" end="1" departLane="0" departSpeed="0" number="6" type="type1"/>
  <flow id="i97" departPos="random_free" from="nt3_nt8" to="nt21_np15" begin="0" end="1" departLane="0" departSpeed="0" number="6" type="type1"/>
  <flow id="i98" departPos="random_free" from="nt8_nt3" to="nt23_np13" begin="0" end="1" departLane="0" departSpeed="0" number="6" type="type1"/>
  <flow id="i99" departPos="random_free" from="nt8_nt13" to="nt25_np10" begin="0" end="1" departLane="0" departSpeed="0" number="6" type="type1"/>
  <flow id="i100" departPos="random_free" from="nt13_nt8" to="nt5_np5" begin="0" end="1" departLane="0" departSpeed="0" number="6" type="type1"/>
  <flow id="i101" departPos="random_free" from="nt13_nt18" to="nt1_np1" begin="0" end="1" departLane="0" departSpeed="0" number="6" type="type1"/>
  <flow id="i102" departPos="random_free" from="nt18_nt13" to="nt3_np3" begin="0" end="1" departLane="0" departSpeed="0" number="6" type="type1"/>
  <flow id="i103" departPos="random_free" from="nt18_nt23" to="nt21_np15" begin="0" end="1" departLane="0" departSpeed="0" number="6" type="type1"/>
  <flow id="i104" departPos="random_free" from="nt23_nt18" to="nt6_np19" begin="0" end="1" departLane="0" departSpeed="0" number="6" type="type1"/>
  <flow id="i105" departPos="random_free" from="nt4_nt9" to="nt6_np19" begin="0" end="1" departLane="0" departSpeed="0" number="6" type="type1"/>
  <flow id="i106" departPos="random_free" from="nt9_nt4" to="nt1_np20" begin="0" end="1" departLane="0" departSpeed="0" number="6" type="type1"/>
  <flow id="i107" departPos="random_free" from="nt9_nt14" to="nt5_np5" begin="0" end="1" departLane="0" departSpeed="0" number="6" type="type1"/>
  <flow id="i108" departPos="random_free" from="nt14_nt9" to="nt25_np10" begin="0" end="1" departLane="0" departSpeed="0" number="6" type="type1"/>
  <flow id="i109" departPos="random_free" from="nt14_nt19" to="nt25_np11" begin="0" end="1" departLane="0" departSpeed="0" number="6" type="type1"/>
  <flow id="i110" departPos="random_free" from="nt19_nt14" to="nt25_np10" begin="0" end="1" departLane="0" departSpeed="0" number="6" type="type1"/>
  <flow id="i111" departPos="random_free" from="nt19_nt24" to="nt10_np7" begin="0" end="1" departLane="0" departSpeed="0" number="6" type="type1"/>
  <flow id="i112" departPos="random_free" from="nt24_nt19" to="nt23_np13" begin="0" end="1" departLane="0" departSpeed="0" number="6" type="type1"/>
  <flow id="i113" departPos="random_free" from="nt5_nt10" to="nt2_np2" begin="0" end="1" departLane="0" departSpeed="0" number="6" type="type1"/>
  <flow id="i114" departPos="random_free" from="nt10_nt5" to="nt25_np10" begin="0" end="1" departLane="0" departSpeed="0" number="6" type="type1"/>
  <flow id="i115" departPos="random_free" from="nt10_nt15" to="nt21_np15" begin="0" end="1" departLane="0" departSpeed="0" number="6" type="type1"/>
  <flow id="i116" departPos="random_free" from="nt15_nt10" to="nt22_np14" begin="0" end="1" departLane="0" departSpeed="0" number="6" type="type1"/>
  <flow id="i117" departPos="random_free" from="nt15_nt20" to="nt2_np2" begin="0" end="1" departLane="0" departSpeed="0" number="6" type="type1"/>
  <flow id="i118" departPos="random_free" from="nt20_nt15" to="nt3_np3" begin="0" end="1" departLane="0" departSpeed="0" number="6" type="type1"/>
  <flow id="i119" departPos="random_free" from="nt20_nt25" to="nt5_np6" begin="0" end="1" departLane="0" departSpeed="0" number="6" type="type1"/>
  <flow id="i120" departPos="random_free" from="nt25_nt20" to="nt10_np7" begin="0" end="1" departLane="0" departSpeed="0" number="6" type="type1"/>
  <flow id="f0_0" departPos="random_free" from="np12_nt24" to="nt2_np2" begin="0" end="300" vehsPerHour="240" type="type1"/>
  <flow id="f0_1" departPos="random_free" from="np13_nt23" to="nt3_np3" begin="0" end="300" vehsPerHour="240" type="type1"/>
  <flow id="f0_2" departPos="random_free" from="np14_nt22" to="nt4_np4" begin="0" end="300" vehsPerHour="240" type="type1"/>
  <flow id="f0_3" departPos="random_free" from="np16_nt21" to="nt5_np6" begin="0" end="300" vehsPerHour="400" type="type1"/>
  <flow id="f0_4" departPos="random_free" from="np18_nt11" to="nt15_np8" begin="0" end="300" vehsPerHour="400" type="type1"/>
  <flow id="f0_5" departPos="random_free" from="np20_nt1" to="nt25_np10" begin="0" end="300" vehsPerHour="400" type="type1"/>
  <flow id="f1_0" departPos="random_free" from="np12_nt24" to="nt2_np2" begin="300" end="600" vehsPerHour="420" type="type1"/>
  <flow id="f1_1" departPos="random_free" from="np13_nt23" to="nt3_np3" begin="300" end="600" vehsPerHour="420" type="type1"/>
  <flow id="f1_2" departPos="random_free" from="np14_nt22" to="nt4_np4" begin="300" end="600" vehsPerHour="420" type="type1"/>
  <flow id="f1_3" departPos="random_free" from="np16_nt21" to="nt5_np6" begin="300" end="600" vehsPerHour="700" type="type1"/>
  <flow id="f1_4" departPos="random_free" from="np18_nt11" to="nt15_np8" begin="300" end="600" vehsPerHour="700" type="type1"/>
  <flow id="f1_5" departPos="random_free" from="np20_nt1" to="nt25_np10" begin="300" end="600" vehsPerHour="700" type="type1"/>
  <flow id="f2_0" departPos="random_free" from="np12_nt24" to="nt2_np2" begin="600" end="900" vehsPerHour="540" type="type1"/>
  <flow id="f2_1" departPos="random_free" from="np13_nt23" to="nt3_np3" begin="600" end="900" vehsPerHour="540" type="type1"/>
  <flow id="f2_2" departPos="random_free" from="np14_nt22" to="nt4_np4" begin="600" end="900" vehsPerHour="540" type="type1"/>
  <flow id="f2_3" departPos="random_free" from="np16_nt21" to="nt5_np6" begin="600" end="900" vehsPerHour="900" type="type1"/>
  <flow id="f2_4" departPos="random_free" from="np18_nt11" to="nt15_np8" begin="600" end="900" vehsPerHour="900" type="type1"/>
  <flow id="f2_5" departPos="random_free" from="np20_nt1" to="nt25_np10" begin="600" end="900" vehsPerHour="900" type="type1"/>
  <flow id="f3_0" departPos="random_free" from="np12_nt24" to="nt2_np2" begin="900" end="1200" vehsPerHour="600" type="type1"/>
  <flow id="f3_1" departPos="random_free" from="np13_nt23" to="nt3_np3" begin="900" end="1200" vehsPerHour="600" type="type1"/>
  <flow id="f3_2" departPos="random_free" from="np14_nt22" to="nt4_np4" begin="900" end="1200" vehsPerHour="600" type="type1"/>
  <flow id="f3_3" departPos="random_free" from="np16_nt21" to="nt5_np6" begin="900" end="1200" vehsPerHour="1000" type="type1"/>
  <flow id="f3_4" departPos="random_free" from="np18_nt11" to="nt15_np8" begin="900" end="1200" vehsPerHour="1000" type="type1"/>
  <flow id="f3_5" departPos="random_free" from="np20_nt1" to="nt25_np10" begin="900" end="1200" vehsPerHour="1000" type="type1"/>
  <flow id="f3_6" departPos="random_free" from="np2_nt2" to="nt22_np14" begin="900" end="1200" vehsPerHour="360" type="type1"/>
  <flow id="f3_7" departPos="random_free" from="np3_nt3" to="nt23_np13" begin="900" end="1200" vehsPerHour="360" type="type1"/>
  <flow id="f3_8" departPos="random_free" from="np4_nt4" to="nt24_np12" begin="900" end="1200" vehsPerHour="360" type="type1"/>
  <flow id="f3_9" departPos="random_free" from="np6_nt5" to="nt1_np20" begin="900" end="1200" vehsPerHour="600" type="type1"/>
  <flow id="f3_10" departPos="random_free" from="np8_nt15" to="nt11_np18" begin="900" end="1200" vehsPerHour="600" type="type1"/>
  <flow id="f3_11" departPos="random_free" from="np10_nt25" to="nt21_np16" begin="900" end="1200" vehsPerHour="600" type="type1"/>
  <flow id="f4_0" departPos="random_free" from="np12_nt24" to="nt2_np2" begin="1200" end="1500" vehsPerHour="450" type="type1"/>
  <flow id="f4_1" departPos="random_free" from="np13_nt23" to="nt3_np3" begin="1200" end="1500" vehsPerHour="450" type="type1"/>
  <flow id="f4_2" departPos="random_free" from="np14_nt22" to="nt4_np4" begin="1200" end="1500" vehsPerHour="450" type="type1"/>
  <flow id="f4_3" departPos="random_free" from="np16_nt21" to="nt5_np6" begin="1200" end="1500" vehsPerHour="750" type="type1"/>
  <flow id="f4_4" departPos="random_free" from="np18_nt11" to="nt15_np8" begin="1200" end="1500" vehsPerHour="750" type="type1"/>
  <flow id="f4_5" departPos="random_free" from="np20_nt1" to="nt25_np10" begin="1200" end="1500" vehsPerHour="750" type="type1"/>
  <flow id="f4_6" departPos="random_free" from="np2_nt2" to="nt22_np14" begin="1200" end="1500" vehsPerHour="960" type="type1"/>
  <flow id="f4_7" departPos="random_free" from="np3_nt3" to="nt23_np13" begin="1200" end="1500" vehsPerHour="960" type="type1"/>
  <flow id="f4_8" departPos="random_free" from="np4_nt4" to="nt24_np12" begin="1200" end="1500" vehsPerHour="960" type="type1"/>
  <flow id="f4_9" departPos="random_free" from="np6_nt5" to="nt1_np20" begin="1200" end="1500" vehsPerHour="1600" type="type1"/>
  <flow id="f4_10" departPos="random_free" from="np8_nt15" to="nt11_np18" begin="1200" end="1500" vehsPerHour="1600" type="type1"/>
  <flow id="f4_11" departPos="random_free" from="np10_nt25" to="nt21_np16" begin="1200" end="1500" vehsPerHour="1600" type="type1"/>
  <flow id="f5_0" departPos="random_free" from="np12_nt24" to="nt2_np2" begin="1500" end="1800" vehsPerHour="300" type="type1"/>
  <flow id="f5_1" departPos="random_free" from="np13_nt23" to="nt3_np3" begin="1500" end="1800" vehsPerHour="300" type="type1"/>
  <flow id="f5_2" departPos="random_free" from="np14_nt22" to="nt4_np4" begin="1500" end="1800" vehsPerHour="300" type="type1"/>
  <flow id="f5_3" departPos="random_free" from="np16_nt21" to="nt5_np6" begin="1500" end="1800" vehsPerHour="500" type="type1"/>
  <flow id="f5_4" departPos="random_free" from="np18_nt11" to="nt15_np8" begin="1500" end="1800" vehsPerHour="500" type="type1"/>
  <flow id="f5_5" departPos="random_free" from="np20_nt1" to="nt25_np10" begin="1500" end="1800" vehsPerHour="500" type="type1"/>
  <flow id="f5_6" departPos="random_free" from="np2_nt2" to="nt22_np14" begin="1500" end="1800" vehsPerHour="1080" type="type1"/>
  <flow id="f5_7" departPos="random_free" from="np3_nt3" to="nt23_np13" begin="1500" end="1800" vehsPerHour="1080" type="type1"/>
  <flow id="f5_8" departPos="random_free" from="np4_nt4" to="nt24_np12" begin="1500" end="1800" vehsPerHour="1080" type="type1"/>
  <flow id="f5_9" departPos="random_free" from="np6_nt5" to="nt1_np20" begin="1500" end="1800" vehsPerHour="1800" type="type1"/>
  <flow id="f5_10" departPos="random_free" from="np8_nt15" to="nt11_np18" begin="1500" end="1800" vehsPerHour="1800" type="type1"/>
  <flow id="f5_11" departPos="random_free" from="np10_nt25" to="nt21_np16" begin="1500" end="1800" vehsPerHour="1800" type="type1"/>
  <flow id="f6_0" departPos="random_free" from="np12_nt24" to="nt2_np2" begin="1800" end="2100" vehsPerHour="150" type="type1"/>
  <flow id="f6_1" departPos="random_free" from="np13_nt23" to="nt3_np3" begin="1800" end="2100" vehsPerHour="150" type="type1"/>
  <flow id="f6_2" departPos="random_free" from="np14_nt22" to="nt4_np4" begin="1800" end="2100" vehsPerHour="150" type="type1"/>
  <flow id="f6_3" departPos="random_free" from="np16_nt21" to="nt5_np6" begin="1800" end="2100" vehsPerHour="250" type="type1"/>
  <flow id="f6_4" departPos="random_free" from="np18_nt11" to="nt15_np8" begin="1800" end="2100" vehsPerHour="250" type="type1"/>
  <flow id="f6_5" departPos="random_free" from="np20_nt1" to="nt25_np10" begin="1800" end="2100" vehsPerHour="250" type="type1"/>
  <flow id="f6_6" departPos="random_free" from="np2_nt2" to="nt22_np14" begin="1800" end="2100" vehsPerHour="1200" type="type1"/>
  <flow id="f6_7" departPos="random_free" from="np3_nt3" to="nt23_np13" begin="1800" end="2100" vehsPerHour="1200" type="type1"/>
  <flow id="f6_8" departPos="random_free" from="np4_nt4" to="nt24_np12" begin="1800" end="2100" vehsPerHour="1200" type="type1"/>
  <flow id="f6_9" departPos="random_free" from="np6_nt5" to="nt1_np20" begin="1800" end="2100" vehsPerHour="2000" type="type1"/>
  <flow id="f6_10" departPos="random_free" from="np8_nt15" to="nt11_np18" begin="1800" end="2100" vehsPerHour="2000" type="type1"/>
  <flow id="f6_11" departPos="random_free" from="np10_nt25" to="nt21_np16" begin="1800" end="2100" vehsPerHour="2000" type="type1"/>
  <flow id="f7_0" departPos="random_free" from="np2_nt2" to="nt22_np14" begin="2100" end="2400" vehsPerHour="960" type="type1"/>
  <flow id="f7_1" departPos="random_free" from="np3_nt3" to="nt23_np13" begin="2100" end="2400" vehsPerHour="960" type="type1"/>
  <flow id="f7_2" departPos="random_free" from="np4_nt4" to="nt24_np12" begin="2100" end="2400" vehsPerHour="960" type="type1"/>
  <flow id="f7_3" departPos="random_free" from="np6_nt5" to="nt1_np20" begin="2100" end="2400" vehsPerHour="1600" type="type1"/>
  <flow id="f7_4" departPos="random_free" from="np8_nt15" to="nt11_np18" begin="2100" end="2400" vehsPerHour="1600" type="type1"/>
  <flow id="f7_5" departPos="random_free" from="np10_nt25" to="nt21_np16" begin="2100" end="2400" vehsPerHour="1600" type="type1"/>
  <flow id="f8_0" departPos="random_free" from="np2_nt2" to="nt22_np14" begin="2400" end="2700" vehsPerHour="720" type="type1"/>
  <flow id="f8_1" departPos="random_free" from="np3_nt3" to="nt23_np13" begin="2400" end="2700" vehsPerHour="720" type="type1"/>
  <flow id="f8_2" departPos="random_free" from="np4_nt4" to="nt24_np12" begin="2400" end="2700" vehsPerHour="720" type="type1"/>
  <flow id="f8_3" departPos="random_free" from="np6_nt5" to="nt1_np20" begin="2400" end="2700" vehsPerHour="1200" type="type1"/>
  <flow id="f8_4" departPos="random_free" from="np8_nt15" to="nt11_np18" begin="2400" end="2700" vehsPerHour="1200" type="type1"/>
  <flow id="f8_5" departPos="random_free" from="np10_nt25" to="nt21_np16" begin="2400" end="2700" vehsPerHour="1200" type="type1"/>
  <flow id="f9_0" departPos="random_free" from="np2_nt2" to="nt22_np14" begin="2700" end="3000" vehsPerHour="240" type="type1"/>
  <flow id="f9_1" departPos="random_free" from="np3_nt3" to="nt23_np13" begin="2700" end="3000" vehsPerHour="240" type="type1"/>
  <flow id="f9_2" departPos="random_free" from="np4_nt4" to="nt24_np12" begin="2700" end="3000" vehsPerHour="240" type="type1"/>
  <flow id="f9_3" departPos="random_free" from="np6_nt5" to="nt1_np20" begin="2700" end="3000" vehsPerHour="400" type="type1"/>
  <flow id="f9_4" departPos="random_free" from="np8_nt15" to="nt11_np18" begin="2700" end="3000" vehsPerHour="400" type="type1"/>
  <flow id="f9_5" departPos="random_free" from="np10_nt25" to="nt21_np16" begin="2700" end="3000" vehsPerHour="400" type="type1"/>
</routes>
