<edges>
  <edge id="nt5_np6" from="nt5" to="np6" type="a"/>
  <edge id="np6_nt5" from="np6" to="nt5" type="a"/>
  <edge id="nt10_np7" from="nt10" to="np7" type="a"/>
  <edge id="np7_nt10" from="np7" to="nt10" type="a"/>
  <edge id="nt15_np8" from="nt15" to="np8" type="a"/>
  <edge id="np8_nt15" from="np8" to="nt15" type="a"/>
  <edge id="nt20_np9" from="nt20" to="np9" type="a"/>
  <edge id="np9_nt20" from="np9" to="nt20" type="a"/>
  <edge id="nt25_np10" from="nt25" to="np10" type="a"/>
  <edge id="np10_nt25" from="np10" to="nt25" type="a"/>
  <edge id="nt21_np16" from="nt21" to="np16" type="a"/>
  <edge id="np16_nt21" from="np16" to="nt21" type="a"/>
  <edge id="nt16_np17" from="nt16" to="np17" type="a"/>
  <edge id="np17_nt16" from="np17" to="nt16" type="a"/>
  <edge id="nt11_np18" from="nt11" to="np18" type="a"/>
  <edge id="np18_nt11" from="np18" to="nt11" type="a"/>
  <edge id="nt6_np19" from="nt6" to="np19" type="a"/>
  <edge id="np19_nt6" from="np19" to="nt6" type="a"/>
  <edge id="nt1_np20" from="nt1" to="np20" type="a"/>
  <edge id="np20_nt1" from="np20" to="nt1" type="a"/>
  <edge id="nt1_np1" from="nt1" to="np1" type="b"/>
  <edge id="np1_nt1" from="np1" to="nt1" type="b"/>
  <edge id="nt2_np2" from="nt2" to="np2" type="b"/>
  <edge id="np2_nt2" from="np2" to="nt2" type="b"/>
  <edge id="nt3_np3" from="nt3" to="np3" type="b"/>
  <edge id="np3_nt3" from="np3" to="nt3" type="b"/>
  <edge id="nt4_np4" from="nt4" to="np4" type="b"/>
  <edge id="np4_nt4" from="np4" to="nt4" type="b"/>
  <edge id="nt5_np5" from="nt5" to="np5" type="b"/>
  <edge id="np5_nt5" from="np5" to="nt5" type="b"/>
  <edge id="nt25_np11" from="nt25" to="np11" type="b"/>
  <edge id="np11_nt25" from="np11" to="nt25" type="b"/>
  <edge id="nt24_np12" from="nt24" to="np12" type="b"/>
  <edge id="np12_nt24" from="np12" to="nt24" type="b"/>
  <edge id="nt23_np13" from="nt23" to="np13" type="b"/>
  <edge id="np13_nt23" from="np13" to="nt23" type="b"/>
  <edge id="nt22_np14" from="nt22" to="np14" type="b"/>
  <edge id="np14_nt22" from="np14" to="nt22" type="b"/>
  <edge id="nt21_np15" from="nt21" to="np15" type="b"/>
  <edge id="np15_nt21" from="np15" to="nt21" type="b"/>
  <edge id="nt1_nt2" from="nt1" to="nt2" type="a"/>
  <edge id="nt2_nt1" from="nt2" to="nt1" type="a"/>
  <edge id="nt2_nt3" from="nt2" to="nt3" type="a"/>
  <edge id="nt3_nt2" from="nt3" to="nt2" type="a"/>
  <edge id="nt3_nt4" from="nt3" to="nt4" type="a"/>
  <edge id="nt4_nt3" from="nt4" to="nt3" type="a"/>
  <edge id="nt4_nt5" from="nt4" to="nt5" type="a"/>
  <edge id="nt5_nt4" from="nt5" to="nt4" type="a"/>
  <edge id="nt6_nt7" from="nt6" to="nt7" type="a"/>
  <edge id="nt7_nt6" from="nt7" to="nt6" type="a"/>
  <edge id="nt7_nt8" from="nt7" to="nt8" type="a"/>
  <edge id="nt8_nt7" from="nt8" to="nt7" type="a"/>
  <edge id="nt8_nt9" from="nt8" to="nt9" type="a"/>
  <edge id="nt9_nt8" from="nt9" to="nt8" type="a"/>
  <edge id="nt9_nt10" from="nt9" to="nt10" type="a"/>
  <edge id="nt10_nt9" from="nt10" to="nt9" type="a"/>
  <edge id="nt11_nt12" from="nt11" to="nt12" type="a"/>
  <edge id="nt12_nt11" from="nt12" to="nt11" type="a"/>
  <edge id="nt12_nt13" from="nt12" to="nt13" type="a"/>
  <edge id="nt13_nt12" from="nt13" to="nt12" type="a"/>
  <edge id="nt13_nt14" from="nt13" to="nt14" type="a"/>
  <edge id="nt14_nt13" from="nt14" to="nt13" type="a"/>
  <edge id="nt14_nt15" from="nt14" to="nt15" type="a"/>
  <edge id="nt15_nt14" from="nt15" to="nt14" type="a"/>
  <edge id="nt16_nt17" from="nt16" to="nt17" type="a"/>
  <edge id="nt17_nt16" from="nt17" to="nt16" type="a"/>
  <edge id="nt17_nt18" from="nt17" to="nt18" type="a"/>
  <edge id="nt18_nt17" from="nt18" to="nt17" type="a"/>
  <edge id="nt18_nt19" from="nt18" to="nt19" type="a"/>
  <edge id="nt19_nt18" from="nt19" to="nt18" type="a"/>
  <edge id="nt19_nt20" from="nt19" to="nt20" type="a"/>
  <edge id="nt20_nt19" from="nt20" to="nt19" type="a"/>
  <edge id="nt21_nt22" from="nt21" to="nt22" type="a"/>
  <edge id="nt22_nt21" from="nt22" to="nt21" type="a"/>
  <edge id="nt22_nt23" from="nt22" to="nt23" type="a"/>
  <edge id="nt23_nt22" from="nt23" to="nt22" type="a"/>
  <edge id="nt23_nt24" from="nt23" to="nt24" type="a"/>
  <edge id="nt24_nt23" from="nt24" to="nt23" type="a"/>
  <edge id="nt24_nt25" from="nt24" to="nt25" type="a"/>
  <edge id="nt25_nt24" from="nt25" to="nt24" type="a"/>
  <edge id="nt1_nt6" from="nt1" to="nt6" type="b"/>
  <edge id="nt6_nt1" from="nt6" to="nt1" type="b"/>
  <edge id="nt6_nt11" from="nt6" to="nt11" type="b"/>
  <edge id="nt11_nt6" from="nt11" to="nt6" type="b"/>
  <edge id="nt11_nt16" from="nt11" to="nt16" type="b"/>
  <edge id="nt16_nt11" from="nt16" to="nt11" type="b"/>
  <edge id="nt16_nt21" from="nt16" to="nt21" type="b"/>
  <edge id="nt21_nt16" from="nt21" to="nt16" type="b"/>
  <edge id="nt2_nt7" from="nt2" to="nt7" type="b"/>
  <edge id="nt7_nt2" from="nt7" to="nt2" type="b"/>
  <edge id="nt7_nt12" from="nt7" to="nt12" type="b"/>
  <edge id="nt12_nt7" from="nt12" to="nt7" type="b"/>
  <edge id="nt12_nt17" from="nt12" to="nt17" type="b"/>
  <edge id="nt17_nt12" from="nt17" to="nt12" type="b"/>
  <edge id="nt17_nt22" from="nt17" to="nt22" type="b"/>
  <edge id="nt22_nt17" from="nt22" to="nt17" type="b"/>
  <edge id="nt3_nt8" from="nt3" to="nt8" type="b"/>
  <edge id="nt8_nt3" from="nt8" to="nt3" type="b"/>
  <edge id="nt8_nt13" from="nt8" to="nt13" type="b"/>
  <edge id="nt13_nt8" from="nt13" to="nt8" type="b"/>
  <edge id="nt13_nt18" from="nt13" to="nt18" type="b"/>
  <edge id="nt18_nt13" from="nt18" to="nt13" type="b"/>
  <edge id="nt18_nt23" from="nt18" to="nt23" type="b"/>
  <edge id="nt23_nt18" from="nt23" to="nt18" type="b"/>
  <edge id="nt4_nt9" from="nt4" to="nt9" type="b"/>
  <edge id="nt9_nt4" from="nt9" to="nt4" type="b"/>
  <edge id="nt9_nt14" from="nt9" to="nt14" type="b"/>
  <edge id="nt14_nt9" from="nt14" to="nt9" type="b"/>
  <edge id="nt14_nt19" from="nt14" to="nt19" type="b"/>
  <edge id="nt19_nt14" from="nt19" to="nt14" type="b"/>
  <edge id="nt19_nt24" from="nt19" to="nt24" type="b"/>
  <edge id="nt24_nt19" from="nt24" to="nt19" type="b"/>
  <edge id="nt5_nt10" from="nt5" to="nt10" type="b"/>
  <edge id="nt10_nt5" from="nt10" to="nt5" type="b"/>
  <edge id="nt10_nt15" from="nt10" to="nt15" type="b"/>
  <edge id="nt15_nt10" from="nt15" to="nt10" type="b"/>
  <edge id="nt15_nt20" from="nt15" to="nt20" type="b"/>
  <edge id="nt20_nt15" from="nt20" to="nt15" type="b"/>
  <edge id="nt20_nt25" from="nt20" to="nt25" type="b"/>
  <edge id="nt25_nt20" from="nt25" to="nt20" type="b"/>
</edges>
