<connections>
  <connection from="np5_nt5" to="nt5_nt10" fromLane="0" toLane="0"/>
  <connection from="nt10_nt5" to="nt5_np5" fromLane="0" toLane="0"/>
  <connection from="nt4_nt5" to="nt5_np6" fromLane="0" toLane="0"/>
  <connection from="np6_nt5" to="nt5_nt4" fromLane="0" toLane="0"/>
  <connection from="np5_nt5" to="nt5_nt4" fromLane="0" toLane="1"/>
  <connection from="nt10_nt5" to="nt5_np6" fromLane="0" toLane="1"/>
  <connection from="nt4_nt5" to="nt5_nt10" fromLane="1" toLane="0"/>
  <connection from="np6_nt5" to="nt5_np5" fromLane="1" toLane="0"/>
  <connection from="np5_nt5" to="nt5_np6" fromLane="0" toLane="0"/>
  <connection from="nt10_nt5" to="nt5_nt4" fromLane="0" toLane="0"/>
  <connection from="nt4_nt5" to="nt5_np5" fromLane="0" toLane="0"/>
  <connection from="np6_nt5" to="nt5_nt10" fromLane="0" toLane="0"/>
  <connection from="nt5_nt10" to="nt10_nt15" fromLane="0" toLane="0"/>
  <connection from="nt15_nt10" to="nt10_nt5" fromLane="0" toLane="0"/>
  <connection from="nt9_nt10" to="nt10_np7" fromLane="0" toLane="0"/>
  <connection from="np7_nt10" to="nt10_nt9" fromLane="0" toLane="0"/>
  <connection from="nt5_nt10" to="nt10_nt9" fromLane="0" toLane="1"/>
  <connection from="nt15_nt10" to="nt10_np7" fromLane="0" toLane="1"/>
  <connection from="nt9_nt10" to="nt10_nt15" fromLane="1" toLane="0"/>
  <connection from="np7_nt10" to="nt10_nt5" fromLane="1" toLane="0"/>
  <connection from="nt5_nt10" to="nt10_np7" fromLane="0" toLane="0"/>
  <connection from="nt15_nt10" to="nt10_nt9" fromLane="0" toLane="0"/>
  <connection from="nt9_nt10" to="nt10_nt5" fromLane="0" toLane="0"/>
  <connection from="np7_nt10" to="nt10_nt15" fromLane="0" toLane="0"/>
  <connection from="nt10_nt15" to="nt15_nt20" fromLane="0" toLane="0"/>
  <connection from="nt20_nt15" to="nt15_nt10" fromLane="0" toLane="0"/>
  <connection from="nt14_nt15" to="nt15_np8" fromLane="0" toLane="0"/>
  <connection from="np8_nt15" to="nt15_nt14" fromLane="0" toLane="0"/>
  <connection from="nt10_nt15" to="nt15_nt14" fromLane="0" toLane="1"/>
  <connection from="nt20_nt15" to="nt15_np8" fromLane="0" toLane="1"/>
  <connection from="nt14_nt15" to="nt15_nt20" fromLane="1" toLane="0"/>
  <connection from="np8_nt15" to="nt15_nt10" fromLane="1" toLane="0"/>
  <connection from="nt10_nt15" to="nt15_np8" fromLane="0" toLane="0"/>
  <connection from="nt20_nt15" to="nt15_nt14" fromLane="0" toLane="0"/>
  <connection from="nt14_nt15" to="nt15_nt10" fromLane="0" toLane="0"/>
  <connection from="np8_nt15" to="nt15_nt20" fromLane="0" toLane="0"/>
  <connection from="nt15_nt20" to="nt20_nt25" fromLane="0" toLane="0"/>
  <connection from="nt25_nt20" to="nt20_nt15" fromLane="0" toLane="0"/>
  <connection from="nt19_nt20" to="nt20_np9" fromLane="0" toLane="0"/>
  <connection from="np9_nt20" to="nt20_nt19" fromLane="0" toLane="0"/>
  <connection from="nt15_nt20" to="nt20_nt19" fromLane="0" toLane="1"/>
  <connection from="nt25_nt20" to="nt20_np9" fromLane="0" toLane="1"/>
  <connection from="nt19_nt20" to="nt20_nt25" fromLane="1" toLane="0"/>
  <connection from="np9_nt20" to="nt20_nt15" fromLane="1" toLane="0"/>
  <connection from="nt15_nt20" to="nt20_np9" fromLane="0" toLane="0"/>
  <connection from="nt25_nt20" to="nt20_nt19" fromLane="0" toLane="0"/>
  <connection from="nt19_nt20" to="nt20_nt15" fromLane="0" toLane="0"/>
  <connection from="np9_nt20" to="nt20_nt25" fromLane="0" toLane="0"/>
  <connection from="nt20_nt25" to="nt25_np11" fromLane="0" toLane="0"/>
  <connection from="np11_nt25" to="nt25_nt20" fromLane="0" toLane="0"/>
  <connection from="nt24_nt25" to="nt25_np10" fromLane="0" toLane="0"/>
  <connection from="np10_nt25" to="nt25_nt24" fromLane="0" toLane="0"/>
  <connection from="nt20_nt25" to="nt25_nt24" fromLane="0" toLane="1"/>
  <connection from="np11_nt25" to="nt25_np10" fromLane="0" toLane="1"/>
  <connection from="nt24_nt25" to="nt25_np11" fromLane="1" toLane="0"/>
  <connection from="np10_nt25" to="nt25_nt20" fromLane="1" toLane="0"/>
  <connection from="nt20_nt25" to="nt25_np10" fromLane="0" toLane="0"/>
  <connection from="np11_nt25" to="nt25_nt24" fromLane="0" toLane="0"/>
  <connection from="nt24_nt25" to="nt25_nt20" fromLane="0" toLane="0"/>
  <connection from="np10_nt25" to="nt25_np11" fromLane="0" toLane="0"/>
  <connection from="nt16_nt21" to="nt21_np15" fromLane="0" toLane="0"/>
  <connection from="np15_nt21" to="nt21_nt16" fromLane="0" toLane="0"/>
  <connection from="np16_nt21" to="nt21_nt22" fromLane="0" toLane="0"/>
  <connection from="nt22_nt21" to="nt21_np16" fromLane="0" toLane="0"/>
  <connection from="nt16_nt21" to="nt21_np16" fromLane="0" toLane="1"/>
  <connection from="np15_nt21" to="nt21_nt22" fromLane="0" toLane="1"/>
  <connection from="np16_nt21" to="nt21_np15" fromLane="1" toLane="0"/>
  <connection from="nt22_nt21" to="nt21_nt16" fromLane="1" toLane="0"/>
  <connection from="nt16_nt21" to="nt21_nt22" fromLane="0" toLane="0"/>
  <connection from="np15_nt21" to="nt21_np16" fromLane="0" toLane="0"/>
  <connection from="np16_nt21" to="nt21_nt16" fromLane="0" toLane="0"/>
  <connection from="nt22_nt21" to="nt21_np15" fromLane="0" toLane="0"/>
  <connection from="nt11_nt16" to="nt16_nt21" fromLane="0" toLane="0"/>
  <connection from="nt21_nt16" to="nt16_nt11" fromLane="0" toLane="0"/>
  <connection from="np17_nt16" to="nt16_nt17" fromLane="0" toLane="0"/>
  <connection from="nt17_nt16" to="nt16_np17" fromLane="0" toLane="0"/>
  <connection from="nt11_nt16" to="nt16_np17" fromLane="0" toLane="1"/>
  <connection from="nt21_nt16" to="nt16_nt17" fromLane="0" toLane="1"/>
  <connection from="np17_nt16" to="nt16_nt21" fromLane="1" toLane="0"/>
  <connection from="nt17_nt16" to="nt16_nt11" fromLane="1" toLane="0"/>
  <connection from="nt11_nt16" to="nt16_nt17" fromLane="0" toLane="0"/>
  <connection from="nt21_nt16" to="nt16_np17" fromLane="0" toLane="0"/>
  <connection from="np17_nt16" to="nt16_nt11" fromLane="0" toLane="0"/>
  <connection from="nt17_nt16" to="nt16_nt21" fromLane="0" toLane="0"/>
  <connection from="nt6_nt11" to="nt11_nt16" fromLane="0" toLane="0"/>
  <connection from="nt16_nt11" to="nt11_nt6" fromLane="0" toLane="0"/>
  <connection from="np18_nt11" to="nt11_nt12" fromLane="0" toLane="0"/>
  <connection from="nt12_nt11" to="nt11_np18" fromLane="0" toLane="0"/>
  <connection from="nt6_nt11" to="nt11_np18" fromLane="0" toLane="1"/>
  <connection from="nt16_nt11" to="nt11_nt12" fromLane="0" toLane="1"/>
  <connection from="np18_nt11" to="nt11_nt16" fromLane="1" toLane="0"/>
  <connection from="nt12_nt11" to="nt11_nt6" fromLane="1" toLane="0"/>
  <connection from="nt6_nt11" to="nt11_nt12" fromLane="0" toLane="0"/>
  <connection from="nt16_nt11" to="nt11_np18" fromLane="0" toLane="0"/>
  <connection from="np18_nt11" to="nt11_nt6" fromLane="0" toLane="0"/>
  <connection from="nt12_nt11" to="nt11_nt16" fromLane="0" toLane="0"/>
  <connection from="nt1_nt6" to="nt6_nt11" fromLane="0" toLane="0"/>
  <connection from="nt11_nt6" to="nt6_nt1" fromLane="0" toLane="0"/>
  <connection from="np19_nt6" to="nt6_nt7" fromLane="0" toLane="0"/>
  <connection from="nt7_nt6" to="nt6_np19" fromLane="0" toLane="0"/>
  <connection from="nt1_nt6" to="nt6_np19" fromLane="0" toLane="1"/>
  <connection from="nt11_nt6" to="nt6_nt7" fromLane="0" toLane="1"/>
  <connection from="np19_nt6" to="nt6_nt11" fromLane="1" toLane="0"/>
  <connection from="nt7_nt6" to="nt6_nt1" fromLane="1" toLane="0"/>
  <connection from="nt1_nt6" to="nt6_nt7" fromLane="0" toLane="0"/>
  <connection from="nt11_nt6" to="nt6_np19" fromLane="0" toLane="0"/>
  <connection from="np19_nt6" to="nt6_nt1" fromLane="0" toLane="0"/>
  <connection from="nt7_nt6" to="nt6_nt11" fromLane="0" toLane="0"/>
  <connection from="np1_nt1" to="nt1_nt6" fromLane="0" toLane="0"/>
  <connection from="nt6_nt1" to="nt1_np1" fromLane="0" toLane="0"/>
  <connection from="np20_nt1" to="nt1_nt2" fromLane="0" toLane="0"/>
  <connection from="nt2_nt1" to="nt1_np20" fromLane="0" toLane="0"/>
  <connection from="np1_nt1" to="nt1_np20" fromLane="0" toLane="1"/>
  <connection from="nt6_nt1" to="nt1_nt2" fromLane="0" toLane="1"/>
  <connection from="np20_nt1" to="nt1_nt6" fromLane="1" toLane="0"/>
  <connection from="nt2_nt1" to="nt1_np1" fromLane="1" toLane="0"/>
  <connection from="np1_nt1" to="nt1_nt2" fromLane="0" toLane="0"/>
  <connection from="nt6_nt1" to="nt1_np20" fromLane="0" toLane="0"/>
  <connection from="np20_nt1" to="nt1_np1" fromLane="0" toLane="0"/>
  <connection from="nt2_nt1" to="nt1_nt6" fromLane="0" toLane="0"/>
  <connection from="np2_nt2" to="nt2_nt7" fromLane="0" toLane="0"/>
  <connection from="nt7_nt2" to="nt2_np2" fromLane="0" toLane="0"/>
  <connection from="nt1_nt2" to="nt2_nt3" fromLane="0" toLane="0"/>
  <connection from="nt3_nt2" to="nt2_nt1" fromLane="0" toLane="0"/>
  <connection from="np2_nt2" to="nt2_nt1" fromLane="0" toLane="1"/>
  <connection from="nt7_nt2" to="nt2_nt3" fromLane="0" toLane="1"/>
  <connection from="nt1_nt2" to="nt2_nt7" fromLane="1" toLane="0"/>
  <connection from="nt3_nt2" to="nt2_np2" fromLane="1" toLane="0"/>
  <connection from="np2_nt2" to="nt2_nt3" fromLane="0" toLane="0"/>
  <connection from="nt7_nt2" to="nt2_nt1" fromLane="0" toLane="0"/>
  <connection from="nt1_nt2" to="nt2_np2" fromLane="0" toLane="0"/>
  <connection from="nt3_nt2" to="nt2_nt7" fromLane="0" toLane="0"/>
  <connection from="np3_nt3" to="nt3_nt8" fromLane="0" toLane="0"/>
  <connection from="nt8_nt3" to="nt3_np3" fromLane="0" toLane="0"/>
  <connection from="nt2_nt3" to="nt3_nt4" fromLane="0" toLane="0"/>
  <connection from="nt4_nt3" to="nt3_nt2" fromLane="0" toLane="0"/>
  <connection from="np3_nt3" to="nt3_nt2" fromLane="0" toLane="1"/>
  <connection from="nt8_nt3" to="nt3_nt4" fromLane="0" toLane="1"/>
  <connection from="nt2_nt3" to="nt3_nt8" fromLane="1" toLane="0"/>
  <connection from="nt4_nt3" to="nt3_np3" fromLane="1" toLane="0"/>
  <connection from="np3_nt3" to="nt3_nt4" fromLane="0" toLane="0"/>
  <connection from="nt8_nt3" to="nt3_nt2" fromLane="0" toLane="0"/>
  <connection from="nt2_nt3" to="nt3_np3" fromLane="0" toLane="0"/>
  <connection from="nt4_nt3" to="nt3_nt8" fromLane="0" toLane="0"/>
  <connection from="np4_nt4" to="nt4_nt9" fromLane="0" toLane="0"/>
  <connection from="nt9_nt4" to="nt4_np4" fromLane="0" toLane="0"/>
  <connection from="nt3_nt4" to="nt4_nt5" fromLane="0" toLane="0"/>
  <connection from="nt5_nt4" to="nt4_nt3" fromLane="0" toLane="0"/>
  <connection from="np4_nt4" to="nt4_nt3" fromLane="0" toLane="1"/>
  <connection from="nt9_nt4" to="nt4_nt5" fromLane="0" toLane="1"/>
  <connection from="nt3_nt4" to="nt4_nt9" fromLane="1" toLane="0"/>
  <connection from="nt5_nt4" to="nt4_np4" fromLane="1" toLane="0"/>
  <connection from="np4_nt4" to="nt4_nt5" fromLane="0" toLane="0"/>
  <connection from="nt9_nt4" to="nt4_nt3" fromLane="0" toLane="0"/>
  <connection from="nt3_nt4" to="nt4_np4" fromLane="0" toLane="0"/>
  <connection from="nt5_nt4" to="nt4_nt9" fromLane="0" toLane="0"/>
  <connection from="nt19_nt24" to="nt24_np12" fromLane="0" toLane="0"/>
  <connection from="np12_nt24" to="nt24_nt19" fromLane="0" toLane="0"/>
  <connection from="nt23_nt24" to="nt24_nt25" fromLane="0" toLane="0"/>
  <connection from="nt25_nt24" to="nt24_nt23" fromLane="0" toLane="0"/>
  <connection from="nt19_nt24" to="nt24_nt23" fromLane="0" toLane="1"/>
  <connection from="np12_nt24" to="nt24_nt25" fromLane="0" toLane="1"/>
  <connection from="nt23_nt24" to="nt24_np12" fromLane="1" toLane="0"/>
  <connection from="nt25_nt24" to="nt24_nt19" fromLane="1" toLane="0"/>
  <connection from="nt19_nt24" to="nt24_nt25" fromLane="0" toLane="0"/>
  <connection from="np12_nt24" to="nt24_nt23" fromLane="0" toLane="0"/>
  <connection from="nt23_nt24" to="nt24_nt19" fromLane="0" toLane="0"/>
  <connection from="nt25_nt24" to="nt24_np12" fromLane="0" toLane="0"/>
  <connection from="nt18_nt23" to="nt23_np13" fromLane="0" toLane="0"/>
  <connection from="np13_nt23" to="nt23_nt18" fromLane="0" toLane="0"/>
  <connection from="nt22_nt23" to="nt23_nt24" fromLane="0" toLane="0"/>
  <connection from="nt24_nt23" to="nt23_nt22" fromLane="0" toLane="0"/>
  <connection from="nt18_nt23" to="nt23_nt22" fromLane="0" toLane="1"/>
  <connection from="np13_nt23" to="nt23_nt24" fromLane="0" toLane="1"/>
  <connection from="nt22_nt23" to="nt23_np13" fromLane="1" toLane="0"/>
  <connection from="nt24_nt23" to="nt23_nt18" fromLane="1" toLane="0"/>
  <connection from="nt18_nt23" to="nt23_nt24" fromLane="0" toLane="0"/>
  <connection from="np13_nt23" to="nt23_nt22" fromLane="0" toLane="0"/>
  <connection from="nt22_nt23" to="nt23_nt18" fromLane="0" toLane="0"/>
  <connection from="nt24_nt23" to="nt23_np13" fromLane="0" toLane="0"/>
  <connection from="nt17_nt22" to="nt22_np14" fromLane="0" toLane="0"/>
  <connection from="np14_nt22" to="nt22_nt17" fromLane="0" toLane="0"/>
  <connection from="nt21_nt22" to="nt22_nt23" fromLane="0" toLane="0"/>
  <connection from="nt23_nt22" to="nt22_nt21" fromLane="0" toLane="0"/>
  <connection from="nt17_nt22" to="nt22_nt21" fromLane="0" toLane="1"/>
  <connection from="np14_nt22" to="nt22_nt23" fromLane="0" toLane="1"/>
  <connection from="nt21_nt22" to="nt22_np14" fromLane="1" toLane="0"/>
  <connection from="nt23_nt22" to="nt22_nt17" fromLane="1" toLane="0"/>
  <connection from="nt17_nt22" to="nt22_nt23" fromLane="0" toLane="0"/>
  <connection from="np14_nt22" to="nt22_nt21" fromLane="0" toLane="0"/>
  <connection from="nt21_nt22" to="nt22_nt17" fromLane="0" toLane="0"/>
  <connection from="nt23_nt22" to="nt22_np14" fromLane="0" toLane="0"/>
  <connection from="nt2_nt7" to="nt7_nt12" fromLane="0" toLane="0"/>
  <connection from="nt12_nt7" to="nt7_nt2" fromLane="0" toLane="0"/>
  <connection from="nt6_nt7" to="nt7_nt8" fromLane="0" toLane="0"/>
  <connection from="nt8_nt7" to="nt7_nt6" fromLane="0" toLane="0"/>
  <connection from="nt2_nt7" to="nt7_nt6" fromLane="0" toLane="1"/>
  <connection from="nt12_nt7" to="nt7_nt8" fromLane="0" toLane="1"/>
  <connection from="nt6_nt7" to="nt7_nt12" fromLane="1" toLane="0"/>
  <connection from="nt8_nt7" to="nt7_nt2" fromLane="1" toLane="0"/>
  <connection from="nt2_nt7" to="nt7_nt8" fromLane="0" toLane="0"/>
  <connection from="nt12_nt7" to="nt7_nt6" fromLane="0" toLane="0"/>
  <connection from="nt6_nt7" to="nt7_nt2" fromLane="0" toLane="0"/>
  <connection from="nt8_nt7" to="nt7_nt12" fromLane="0" toLane="0"/>
  <connection from="nt3_nt8" to="nt8_nt13" fromLane="0" toLane="0"/>
  <connection from="nt13_nt8" to="nt8_nt3" fromLane="0" toLane="0"/>
  <connection from="nt7_nt8" to="nt8_nt9" fromLane="0" toLane="0"/>
  <connection from="nt9_nt8" to="nt8_nt7" fromLane="0" toLane="0"/>
  <connection from="nt3_nt8" to="nt8_nt7" fromLane="0" toLane="1"/>
  <connection from="nt13_nt8" to="nt8_nt9" fromLane="0" toLane="1"/>
  <connection from="nt7_nt8" to="nt8_nt13" fromLane="1" toLane="0"/>
  <connection from="nt9_nt8" to="nt8_nt3" fromLane="1" toLane="0"/>
  <connection from="nt3_nt8" to="nt8_nt9" fromLane="0" toLane="0"/>
  <connection from="nt13_nt8" to="nt8_nt7" fromLane="0" toLane="0"/>
  <connection from="nt7_nt8" to="nt8_nt3" fromLane="0" toLane="0"/>
  <connection from="nt9_nt8" to="nt8_nt13" fromLane="0" toLane="0"/>
  <connection from="nt4_nt9" to="nt9_nt14" fromLane="0" toLane="0"/>
  <connection from="nt14_nt9" to="nt9_nt4" fromLane="0" toLane="0"/>
  <connection from="nt8_nt9" to="nt9_nt10" fromLane="0" toLane="0"/>
  <connection from="nt10_nt9" to="nt9_nt8" fromLane="0" toLane="0"/>
  <connection from="nt4_nt9" to="nt9_nt8" fromLane="0" toLane="1"/>
  <connection from="nt14_nt9" to="nt9_nt10" fromLane="0" toLane="1"/>
  <connection from="nt8_nt9" to="nt9_nt14" fromLane="1" toLane="0"/>
  <connection from="nt10_nt9" to="nt9_nt4" fromLane="1" toLane="0"/>
  <connection from="nt4_nt9" to="nt9_nt10" fromLane="0" toLane="0"/>
  <connection from="nt14_nt9" to="nt9_nt8" fromLane="0" toLane="0"/>
  <connection from="nt8_nt9" to="nt9_nt4" fromLane="0" toLane="0"/>
  <connection from="nt10_nt9" to="nt9_nt14" fromLane="0" toLane="0"/>
  <connection from="nt7_nt12" to="nt12_nt17" fromLane="0" toLane="0"/>
  <connection from="nt17_nt12" to="nt12_nt7" fromLane="0" toLane="0"/>
  <connection from="nt11_nt12" to="nt12_nt13" fromLane="0" toLane="0"/>
  <connection from="nt13_nt12" to="nt12_nt11" fromLane="0" toLane="0"/>
  <connection from="nt7_nt12" to="nt12_nt11" fromLane="0" toLane="1"/>
  <connection from="nt17_nt12" to="nt12_nt13" fromLane="0" toLane="1"/>
  <connection from="nt11_nt12" to="nt12_nt17" fromLane="1" toLane="0"/>
  <connection from="nt13_nt12" to="nt12_nt7" fromLane="1" toLane="0"/>
  <connection from="nt7_nt12" to="nt12_nt13" fromLane="0" toLane="0"/>
  <connection from="nt17_nt12" to="nt12_nt11" fromLane="0" toLane="0"/>
  <connection from="nt11_nt12" to="nt12_nt7" fromLane="0" toLane="0"/>
  <connection from="nt13_nt12" to="nt12_nt17" fromLane="0" toLane="0"/>
  <connection from="nt8_nt13" to="nt13_nt18" fromLane="0" toLane="0"/>
  <connection from="nt18_nt13" to="nt13_nt8" fromLane="0" toLane="0"/>
  <connection from="nt12_nt13" to="nt13_nt14" fromLane="0" toLane="0"/>
  <connection from="nt14_nt13" to="nt13_nt12" fromLane="0" toLane="0"/>
  <connection from="nt8_nt13" to="nt13_nt12" fromLane="0" toLane="1"/>
  <connection from="nt18_nt13" to="nt13_nt14" fromLane="0" toLane="1"/>
  <connection from="nt12_nt13" to="nt13_nt18" fromLane="1" toLane="0"/>
  <connection from="nt14_nt13" to="nt13_nt8" fromLane="1" toLane="0"/>
  <connection from="nt8_nt13" to="nt13_nt14" fromLane="0" toLane="0"/>
  <connection from="nt18_nt13" to="nt13_nt12" fromLane="0" toLane="0"/>
  <connection from="nt12_nt13" to="nt13_nt8" fromLane="0" toLane="0"/>
  <connection from="nt14_nt13" to="nt13_nt18" fromLane="0" toLane="0"/>
  <connection from="nt9_nt14" to="nt14_nt19" fromLane="0" toLane="0"/>
  <connection from="nt19_nt14" to="nt14_nt9" fromLane="0" toLane="0"/>
  <connection from="nt13_nt14" to="nt14_nt15" fromLane="0" toLane="0"/>
  <connection from="nt15_nt14" to="nt14_nt13" fromLane="0" toLane="0"/>
  <connection from="nt9_nt14" to="nt14_nt13" fromLane="0" toLane="1"/>
  <connection from="nt19_nt14" to="nt14_nt15" fromLane="0" toLane="1"/>
  <connection from="nt13_nt14" to="nt14_nt19" fromLane="1" toLane="0"/>
  <connection from="nt15_nt14" to="nt14_nt9" fromLane="1" toLane="0"/>
  <connection from="nt9_nt14" to="nt14_nt15" fromLane="0" toLane="0"/>
  <connection from="nt19_nt14" to="nt14_nt13" fromLane="0" toLane="0"/>
  <connection from="nt13_nt14" to="nt14_nt9" fromLane="0" toLane="0"/>
  <connection from="nt15_nt14" to="nt14_nt19" fromLane="0" toLane="0"/>
  <connection from="nt12_nt17" to="nt17_nt22" fromLane="0" toLane="0"/>
  <connection from="nt22_nt17" to="nt17_nt12" fromLane="0" toLane="0"/>
  <connection from="nt16_nt17" to="nt17_nt18" fromLane="0" toLane="0"/>
  <connection from="nt18_nt17" to="nt17_nt16" fromLane="0" toLane="0"/>
  <connection from="nt12_nt17" to="nt17_nt16" fromLane="0" toLane="1"/>
  <connection from="nt22_nt17" to="nt17_nt18" fromLane="0" toLane="1"/>
  <connection from="nt16_nt17" to="nt17_nt22" fromLane="1" toLane="0"/>
  <connection from="nt18_nt17" to="nt17_nt12" fromLane="1" toLane="0"/>
  <connection from="nt12_nt17" to="nt17_nt18" fromLane="0" toLane="0"/>
  <connection from="nt22_nt17" to="nt17_nt16" fromLane="0" toLane="0"/>
  <connection from="nt16_nt17" to="nt17_nt12" fromLane="0" toLane="0"/>
  <connection from="nt18_nt17" to="nt17_nt22" fromLane="0" toLane="0"/>
  <connection from="nt13_nt18" to="nt18_nt23" fromLane="0" toLane="0"/>
  <connection from="nt23_nt18" to="nt18_nt13" fromLane="0" toLane="0"/>
  <connection from="nt17_nt18" to="nt18_nt19" fromLane="0" toLane="0"/>
  <connection from="nt19_nt18" to="nt18_nt17" fromLane="0" toLane="0"/>
  <connection from="nt13_nt18" to="nt18_nt17" fromLane="0" toLane="1"/>
  <connection from="nt23_nt18" to="nt18_nt19" fromLane="0" toLane="1"/>
  <connection from="nt17_nt18" to="nt18_nt23" fromLane="1" toLane="0"/>
  <connection from="nt19_nt18" to="nt18_nt13" fromLane="1" toLane="0"/>
  <connection from="nt13_nt18" to="nt18_nt19" fromLane="0" toLane="0"/>
  <connection from="nt23_nt18" to="nt18_nt17" fromLane="0" toLane="0"/>
  <connection from="nt17_nt18" to="nt18_nt13" fromLane="0" toLane="0"/>
  <connection from="nt19_nt18" to="nt18_nt23" fromLane="0" toLane="0"/>
  <connection from="nt14_nt19" to="nt19_nt24" fromLane="0" toLane="0"/>
  <connection from="nt24_nt19" to="nt19_nt14" fromLane="0" toLane="0"/>
  <connection from="nt18_nt19" to="nt19_nt20" fromLane="0" toLane="0"/>
  <connection from="nt20_nt19" to="nt19_nt18" fromLane="0" toLane="0"/>
  <connection from="nt14_nt19" to="nt19_nt18" fromLane="0" toLane="1"/>
  <connection from="nt24_nt19" to="nt19_nt20" fromLane="0" toLane="1"/>
  <connection from="nt18_nt19" to="nt19_nt24" fromLane="1" toLane="0"/>
  <connection from="nt20_nt19" to="nt19_nt14" fromLane="1" toLane="0"/>
  <connection from="nt14_nt19" to="nt19_nt20" fromLane="0" toLane="0"/>
  <connection from="nt24_nt19" to="nt19_nt18" fromLane="0" toLane="0"/>
  <connection from="nt18_nt19" to="nt19_nt14" fromLane="0" toLane="0"/>
  <connection from="nt20_nt19" to="nt19_nt24" fromLane="0" toLane="0"/>
</connections>
