<routes>
  <vType id="type1" length="5" accel="5" decel="10"/>
  <flow id="f0_0" departPos="random_free" from="np12_nt24" to="nt2_np2" begin="0" end="300" vehsPerHour="264" type="type1"/>
  <flow id="f0_1" departPos="random_free" from="np13_nt23" to="nt3_np3" begin="0" end="300" vehsPerHour="264" type="type1"/>
  <flow id="f0_2" departPos="random_free" from="np14_nt22" to="nt4_np4" begin="0" end="300" vehsPerHour="264" type="type1"/>
  <flow id="f0_3" departPos="random_free" from="np16_nt21" to="nt5_np6" begin="0" end="300" vehsPerHour="440" type="type1"/>
  <flow id="f0_4" departPos="random_free" from="np18_nt11" to="nt15_np8" begin="0" end="300" vehsPerHour="440" type="type1"/>
  <flow id="f0_5" departPos="random_free" from="np20_nt1" to="nt25_np10" begin="0" end="300" vehsPerHour="440" type="type1"/>
  <flow id="f1_0" departPos="random_free" from="np12_nt24" to="nt2_np2" begin="300" end="600" vehsPerHour="461" type="type1"/>
  <flow id="f1_1" departPos="random_free" from="np13_nt23" to="nt3_np3" begin="300" end="600" vehsPerHour="461" type="type1"/>
  <flow id="f1_2" departPos="random_free" from="np14_nt22" to="nt4_np4" begin="300" end="600" vehsPerHour="461" type="type1"/>
  <flow id="f1_3" departPos="random_free" from="np16_nt21" to="nt5_np6" begin="300" end="600" vehsPerHour="770" type="type1"/>
  <flow id="f1_4" departPos="random_free" from="np18_nt11" to="nt15_np8" begin="300" end="600" vehsPerHour="770" type="type1"/>
  <flow id="f1_5" departPos="random_free" from="np20_nt1" to="nt25_np10" begin="300" end="600" vehsPerHour="770" type="type1"/>
  <flow id="f2_0" departPos="random_free" from="np12_nt24" to="nt2_np2" begin="600" end="900" vehsPerHour="594" type="type1"/>
  <flow id="f2_1" departPos="random_free" from="np13_nt23" to="nt3_np3" begin="600" end="900" vehsPerHour="594" type="type1"/>
  <flow id="f2_2" departPos="random_free" from="np14_nt22" to="nt4_np4" begin="600" end="900" vehsPerHour="594" type="type1"/>
  <flow id="f2_3" departPos="random_free" from="np16_nt21" to="nt5_np6" begin="600" end="900" vehsPerHour="990" type="type1"/>
  <flow id="f2_4" departPos="random_free" from="np18_nt11" to="nt15_np8" begin="600" end="900" vehsPerHour="990" type="type1"/>
  <flow id="f2_5" departPos="random_free" from="np20_nt1" to="nt25_np10" begin="600" end="900" vehsPerHour="990" type="type1"/>
  <flow id="f3_0" departPos="random_free" from="np12_nt24" to="nt2_np2" begin="900" end="1200" vehsPerHour="660" type="type1"/>
  <flow id="f3_1" departPos="random_free" from="np13_nt23" to="nt3_np3" begin="900" end="1200" vehsPerHour="660" type="type1"/>
  <flow id="f3_2" departPos="random_free" from="np14_nt22" to="nt4_np4" begin="900" end="1200" vehsPerHour="660" type="type1"/>
  <flow id="f3_3" departPos="random_free" from="np16_nt21" to="nt5_np6" begin="900" end="1200" vehsPerHour="1100" type="type1"/>
  <flow id="f3_4" departPos="random_free" from="np18_nt11" to="nt15_np8" begin="900" end="1200" vehsPerHour="1100" type="type1"/>
  <flow id="f3_5" departPos="random_free" from="np20_nt1" to="nt25_np10" begin="900" end="1200" vehsPerHour="1100" type="type1"/>
  <flow id="f3_6" departPos="random_free" from="np2_nt2" to="nt22_np14" begin="900" end="1200" vehsPerHour="166" type="type1"/>
  <flow id="f3_7" departPos="random_free" from="np3_nt3" to="nt23_np13" begin="900" end="1200" vehsPerHour="166" type="type1"/>
  <flow id="f3_8" departPos="random_free" from="np4_nt4" to="nt24_np12" begin="900" end="1200" vehsPerHour="166" type="type1"/>
  <flow id="f3_9" departPos="random_free" from="np6_nt5" to="nt1_np20" begin="900" end="1200" vehsPerHour="277" type="type1"/>
  <flow id="f3_10" departPos="random_free" from="np8_nt15" to="nt11_np18" begin="900" end="1200" vehsPerHour="277" type="type1"/>
  <flow id="f3_11" departPos="random_free" from="np10_nt25" to="nt21_np16" begin="900" end="1200" vehsPerHour="277" type="type1"/>
  <flow id="f4_0" departPos="random_free" from="np12_nt24" to="nt2_np2" begin="1200" end="1500" vehsPerHour="495" type="type1"/>
  <flow id="f4_1" departPos="random_free" from="np13_nt23" to="nt3_np3" begin="1200" end="1500" vehsPerHour="495" type="type1"/>
  <flow id="f4_2" departPos="random_free" from="np14_nt22" to="nt4_np4" begin="1200" end="1500" vehsPerHour="495" type="type1"/>
  <flow id="f4_3" departPos="random_free" from="np16_nt21" to="nt5_np6" begin="1200" end="1500" vehsPerHour="825" type="type1"/>
  <flow id="f4_4" departPos="random_free" from="np18_nt11" to="nt15_np8" begin="1200" end="1500" vehsPerHour="825" type="type1"/>
  <flow id="f4_5" departPos="random_free" from="np20_nt1" to="nt25_np10" begin="1200" end="1500" vehsPerHour="825" type="type1"/>
  <flow id="f4_6" departPos="random_free" from="np2_nt2" to="nt22_np14" begin="1200" end="1500" vehsPerHour="444" type="type1"/>
  <flow id="f4_7" departPos="random_free" from="np3_nt3" to="nt23_np13" begin="1200" end="1500" vehsPerHour="444" type="type1"/>
  <flow id="f4_8" departPos="random_free" from="np4_nt4" to="nt24_np12" begin="1200" end="1500" vehsPerHour="444" type="type1"/>
  <flow id="f4_9" departPos="random_free" from="np6_nt5" to="nt1_np20" begin="1200" end="1500" vehsPerHour="740" type="type1"/>
  <flow id="f4_10" departPos="random_free" from="np8_nt15" to="nt11_np18" begin="1200" end="1500" vehsPerHour="740" type="type1"/>
  <flow id="f4_11" departPos="random_free" from="np10_nt25" to="nt21_np16" begin="1200" end="1500" vehsPerHour="740" type="type1"/>
  <flow id="f5_0" departPos="random_free" from="np12_nt24" to="nt2_np2" begin="1500" end="1800" vehsPerHour="330" type="type1"/>
  <flow id="f5_1" departPos="random_free" from="np13_nt23" to="nt3_np3" begin="1500" end="1800" vehsPerHour="330" type="type1"/>
  <flow id="f5_2" departPos="random_free" from="np14_nt22" to="nt4_np4" begin="1500" end="1800" vehsPerHour="330" type="type1"/>
  <flow id="f5_3" departPos="random_free" from="np16_nt21" to="nt5_np6" begin="1500" end="1800" vehsPerHour="550" type="type1"/>
  <flow id="f5_4" departPos="random_free" from="np18_nt11" to="nt15_np8" begin="1500" end="1800" vehsPerHour="550" type="type1"/>
  <flow id="f5_5" departPos="random_free" from="np20_nt1" to="nt25_np10" begin="1500" end="1800" vehsPerHour="550" type="type1"/>
  <flow id="f5_6" departPos="random_free" from="np2_nt2" to="nt22_np14" begin="1500" end="1800" vehsPerHour="499" type="type1"/>
  <flow id="f5_7" departPos="random_free" from="np3_nt3" to="nt23_np13" begin="1500" end="1800" vehsPerHour="499" type="type1"/>
  <flow id="f5_8" departPos="random_free" from="np4_nt4" to="nt24_np12" begin="1500" end="1800" vehsPerHour="499" type="type1"/>
  <flow id="f5_9" departPos="random_free" from="np6_nt5" to="nt1_np20" begin="1500" end="1800" vehsPerHour="832" type="type1"/>
  <flow id="f5_10" departPos="random_free" from="np8_nt15" to="nt11_np18" begin="1500" end="1800" vehsPerHour="832" type="type1"/>
  <flow id="f5_11" departPos="random_free" from="np10_nt25" to="nt21_np16" begin="1500" end="1800" vehsPerHour="832" type="type1"/>
  <flow id="f6_0" departPos="random_free" from="np12_nt24" to="nt2_np2" begin="1800" end="2100" vehsPerHour="165" type="type1"/>
  <flow id="f6_1" departPos="random_free" from="np13_nt23" to="nt3_np3" begin="1800" end="2100" vehsPerHour="165" type="type1"/>
  <flow id="f6_2" departPos="random_free" from="np14_nt22" to="nt4_np4" begin="1800" end="2100" vehsPerHour="165" type="type1"/>
  <flow id="f6_3" departPos="random_free" from="np16_nt21" to="nt5_np6" begin="1800" end="2100" vehsPerHour="275" type="type1"/>
  <flow id="f6_4" departPos="random_free" from="np18_nt11" to="nt15_np8" begin="1800" end="2100" vehsPerHour="275" type="type1"/>
  <flow id="f6_5" departPos="random_free" from="np20_nt1" to="nt25_np10" begin="1800" end="2100" vehsPerHour="275" type="type1"/>
  <flow id="f6_6" departPos="random_free" from="np2_nt2" to="nt22_np14" begin="1800" end="2100" vehsPerHour="555" type="type1"/>
  <flow id="f6_7" departPos="random_free" from="np3_nt3" to="nt23_np13" begin="1800" end="2100" vehsPerHour="555" type="type1"/>
  <flow id="f6_8" departPos="random_free" from="np4_nt4" to="nt24_np12" begin="1800" end="2100" vehsPerHour="555" type="type1"/>
  <flow id="f6_9" departPos="random_free" from="np6_nt5" to="nt1_np20" begin="1800" end="2100" vehsPerHour="925" type="type1"/>
  <flow id="f6_10" departPos="random_free" from="np8_nt15" to="nt11_np18" begin="1800" end="2100" vehsPerHour="925" type="type1"/>
  <flow id="f6_11" departPos="random_free" from="np10_nt25" to="nt21_np16" begin="1800" end="2100" vehsPerHour="925" type="type1"/>
  <flow id="f7_0" departPos="random_free" from="np2_nt2" to="nt22_np14" begin="2100" end="2400" vehsPerHour="444" type="type1"/>
  <flow id="f7_1" departPos="random_free" from="np3_nt3" to="nt23_np13" begin="2100" end="2400" vehsPerHour="444" type="type1"/>
  <flow id="f7_2" departPos="random_free" from="np4_nt4" to="nt24_np12" begin="2100" end="2400" vehsPerHour="444" type="type1"/>
  <flow id="f7_3" departPos="random_free" from="np6_nt5" to="nt1_np20" begin="2100" end="2400" vehsPerHour="740" type="type1"/>
  <flow id="f7_4" departPos="random_free" from="np8_nt15" to="nt11_np18" begin="2100" end="2400" vehsPerHour="740" type="type1"/>
  <flow id="f7_5" departPos="random_free" from="np10_nt25" to="nt21_np16" begin="2100" end="2400" vehsPerHour="740" type="type1"/>
  <flow id="f8_0" departPos="random_free" from="np2_nt2" to="nt22_np14" begin="2400" end="2700" vehsPerHour="333" type="type1"/>
  <flow id="f8_1" departPos="random_free" from="np3_nt3" to="nt23_np13" begin="2400" end="2700" vehsPerHour="333" type="type1"/>
  <flow id="f8_2" departPos="random_free" from="np4_nt4" to="nt24_np12" begin="2400" end="2700" vehsPerHour="333" type="type1"/>
  <flow id="f8_3" departPos="random_free" from="np6_nt5" to="nt1_np20" begin="2400" end="2700" vehsPerHour="555" type="type1"/>
  <flow id="f8_4" departPos="random_free" from="np8_nt15" to="nt11_np18" begin="2400" end="2700" vehsPerHour="555" type="type1"/>
  <flow id="f8_5" departPos="random_free" from="np10_nt25" to="nt21_np16" begin="2400" end="2700" vehsPerHour="555" type="type1"/>
  <flow id="f9_0" departPos="random_free" from="np2_nt2" to="nt22_np14" begin="2700" end="3000" vehsPerHour="111" type="type1"/>
  <flow id="f9_1" departPos="random_free" from="np3_nt3" to="nt23_np13" begin="2700" end="3000" vehsPerHour="111" type="type1"/>
  <flow id="f9_2" departPos="random_free" from="np4_nt4" to="nt24_np12" begin="2700" end="3000" vehsPerHour="111" type="type1"/>
  <flow id="f9_3" departPos="random_free" from="np6_nt5" to="nt1_np20" begin="2700" end="3000" vehsPerHour="185" type="type1"/>
  <flow id="f9_4" departPos="random_free" from="np8_nt15" to="nt11_np18" begin="2700" end="3000" vehsPerHour="185" type="type1"/>
  <flow id="f9_5" departPos="random_free" from="np10_nt25" to="nt21_np16" begin="2700" end="3000" vehsPerHour="185" type="type1"/>
</routes>
