<types>
  <type id="a" priority="2" numLanes="2" speed="20.00"/>
  <type id="b" priority="1" numLanes="1" speed="11.00"/>
</types>
