<nodes>
  <node id="nt1" x="0.00" y="0.00" type="traffic_light"/>
  <node id="nt2" x="200.00" y="0.00" type="traffic_light"/>
  <node id="nt3" x="400.00" y="0.00" type="traffic_light"/>
  <node id="nt4" x="600.00" y="0.00" type="traffic_light"/>
  <node id="nt5" x="800.00" y="0.00" type="traffic_light"/>
  <node id="nt6" x="0.00" y="200.00" type="traffic_light"/>
  <node id="nt7" x="200.00" y="200.00" type="traffic_light"/>
  <node id="nt8" x="400.00" y="200.00" type="traffic_light"/>
  <node id="nt9" x="600.00" y="200.00" type="traffic_light"/>
  <node id="nt10" x="800.00" y="200.00" type="traffic_light"/>
  <node id="nt11" x="0.00" y="400.00" type="traffic_light"/>
  <node id="nt12" x="200.00" y="400.00" type="traffic_light"/>
  <node id="nt13" x="400.00" y="400.00" type="traffic_light"/>
  <node id="nt14" x="600.00" y="400.00" type="traffic_light"/>
  <node id="nt15" x="800.00" y="400.00" type="traffic_light"/>
  <node id="nt16" x="0.00" y="600.00" type="traffic_light"/>
  <node id="nt17" x="200.00" y="600.00" type="traffic_light"/>
  <node id="nt18" x="400.00" y="600.00" type="traffic_light"/>
  <node id="nt19" x="600.00" y="600.00" type="traffic_light"/>
  <node id="nt20" x="800.00" y="600.00" type="traffic_light"/>
  <node id="nt21" x="0.00" y="800.00" type="traffic_light"/>
  <node id="nt22" x="200.00" y="800.00" type="traffic_light"/>
  <node id="nt23" x="400.00" y="800.00" type="traffic_light"/>
  <node id="nt24" x="600.00" y="800.00" type="traffic_light"/>
  <node id="nt25" x="800.00" y="800.00" type="traffic_light"/>
  <node id="np1" x="0.00" y="-75.00" type="priority"/>
  <node id="np2" x="200.00" y="-75.00" type="priority"/>
  <node id="np3" x="400.00" y="-75.00" type="priority"/>
  <node id="np4" x="600.00" y="-75.00" type="priority"/>
  <node id="np5" x="800.00" y="-75.00" type="priority"/>
  <node id="np6" x="875.00" y="0.00" type="priority"/>
  <node id="np7" x="875.00" y="200.00" type="priority"/>
  <node id="np8" x="875.00" y="400.00" type="priority"/>
  <node id="np9" x="875.00" y="600.00" type="priority"/>
  <node id="np10" x="875.00" y="800.00" type="priority"/>
  <node id="np11" x="800.00" y="875.00" type="priority"/>
  <node id="np12" x="600.00" y="875.00" type="priority"/>
  <node id="np13" x="400.00" y="875.00" type="priority"/>
  <node id="np14" x="200.00" y="875.00" type="priority"/>
  <node id="np15" x="0.00" y="875.00" type="priority"/>
  <node id="np16" x="-75.00" y="800.00" type="priority"/>
  <node id="np17" x="-75.00" y="600.00" type="priority"/>
  <node id="np18" x="-75.00" y="400.00" type="priority"/>
  <node id="np19" x="-75.00" y="200.00" type="priority"/>
  <node id="np20" x="-75.00" y="0.00" type="priority"/>
</nodes>
